*SPEF "ieee 1481-1999"
*DESIGN "counter"
*DATE "11:21:50 Monday October 06, 2025"
*VENDOR "The OpenROAD Project"
*PROGRAM "OpenROAD"
*VERSION "v2.0-16235-gedf00dff9"
*DESIGN_FLOW "NAME_SCOPE LOCAL" "PIN_CAP NONE"
*DIVIDER /
*DELIMITER :
*BUS_DELIMITER []
*T_UNIT 1 NS
*C_UNIT 1 PF
*R_UNIT 1 OHM
*L_UNIT 1 HENRY

*NAME_MAP
*3 clk_i
*4 counter_val_o[0]
*5 counter_val_o[1]
*6 counter_val_o[2]
*7 counter_val_o[3]
*8 counter_val_o[4]
*9 counter_val_o[5]
*10 counter_val_o[6]
*11 counter_val_o[7]
*12 rst_i
*13 _00_
*14 _01_
*15 _02_
*16 _03_
*17 _04_
*18 _05_
*19 _06_
*20 _07_
*21 _08_
*22 _09_
*23 _10_
*24 _11_
*25 _12_
*26 _13_
*27 _14_
*28 _15_
*29 _16_
*30 _17_
*31 _18_
*32 clknet_0_clk_i
*33 clknet_1_0__leaf_clk_i
*34 clknet_1_1__leaf_clk_i
*35 net1
*36 net2
*37 FILLER_0_100
*38 FILLER_0_103
*39 FILLER_0_106
*40 FILLER_0_109
*41 FILLER_0_113
*42 FILLER_0_116
*43 FILLER_0_119
*44 FILLER_0_12
*45 FILLER_0_122
*46 FILLER_0_125
*47 FILLER_0_128
*48 FILLER_0_131
*49 FILLER_0_134
*50 FILLER_0_137
*51 FILLER_0_141
*52 FILLER_0_144
*53 FILLER_0_147
*54 FILLER_0_15
*55 FILLER_0_169
*56 FILLER_0_18
*57 FILLER_0_184
*58 FILLER_0_187
*59 FILLER_0_190
*60 FILLER_0_193
*61 FILLER_0_197
*62 FILLER_0_200
*63 FILLER_0_203
*64 FILLER_0_206
*65 FILLER_0_209
*66 FILLER_0_21
*67 FILLER_0_212
*68 FILLER_0_215
*69 FILLER_0_218
*70 FILLER_0_221
*71 FILLER_0_225
*72 FILLER_0_228
*73 FILLER_0_231
*74 FILLER_0_234
*75 FILLER_0_237
*76 FILLER_0_24
*77 FILLER_0_240
*78 FILLER_0_243
*79 FILLER_0_246
*80 FILLER_0_249
*81 FILLER_0_253
*82 FILLER_0_256
*83 FILLER_0_259
*84 FILLER_0_262
*85 FILLER_0_265
*86 FILLER_0_268
*87 FILLER_0_27
*88 FILLER_0_271
*89 FILLER_0_274
*90 FILLER_0_277
*91 FILLER_0_281
*92 FILLER_0_284
*93 FILLER_0_287
*94 FILLER_0_29
*95 FILLER_0_290
*96 FILLER_0_293
*97 FILLER_0_296
*98 FILLER_0_299
*99 FILLER_0_3
*100 FILLER_0_302
*101 FILLER_0_305
*102 FILLER_0_309
*103 FILLER_0_312
*104 FILLER_0_315
*105 FILLER_0_318
*106 FILLER_0_32
*107 FILLER_0_321
*108 FILLER_0_324
*109 FILLER_0_327
*110 FILLER_0_330
*111 FILLER_0_35
*112 FILLER_0_38
*113 FILLER_0_41
*114 FILLER_0_44
*115 FILLER_0_47
*116 FILLER_0_50
*117 FILLER_0_53
*118 FILLER_0_57
*119 FILLER_0_6
*120 FILLER_0_60
*121 FILLER_0_63
*122 FILLER_0_66
*123 FILLER_0_69
*124 FILLER_0_72
*125 FILLER_0_75
*126 FILLER_0_78
*127 FILLER_0_81
*128 FILLER_0_85
*129 FILLER_0_88
*130 FILLER_0_9
*131 FILLER_0_91
*132 FILLER_0_94
*133 FILLER_0_97
*134 FILLER_10_100
*135 FILLER_10_103
*136 FILLER_10_106
*137 FILLER_10_109
*138 FILLER_10_112
*139 FILLER_10_115
*140 FILLER_10_118
*141 FILLER_10_12
*142 FILLER_10_121
*143 FILLER_10_124
*144 FILLER_10_127
*145 FILLER_10_130
*146 FILLER_10_133
*147 FILLER_10_136
*148 FILLER_10_139
*149 FILLER_10_141
*150 FILLER_10_144
*151 FILLER_10_147
*152 FILLER_10_15
*153 FILLER_10_150
*154 FILLER_10_153
*155 FILLER_10_156
*156 FILLER_10_159
*157 FILLER_10_162
*158 FILLER_10_165
*159 FILLER_10_168
*160 FILLER_10_171
*161 FILLER_10_174
*162 FILLER_10_177
*163 FILLER_10_18
*164 FILLER_10_180
*165 FILLER_10_183
*166 FILLER_10_186
*167 FILLER_10_189
*168 FILLER_10_192
*169 FILLER_10_195
*170 FILLER_10_197
*171 FILLER_10_200
*172 FILLER_10_203
*173 FILLER_10_206
*174 FILLER_10_209
*175 FILLER_10_21
*176 FILLER_10_212
*177 FILLER_10_215
*178 FILLER_10_218
*179 FILLER_10_221
*180 FILLER_10_224
*181 FILLER_10_227
*182 FILLER_10_230
*183 FILLER_10_233
*184 FILLER_10_236
*185 FILLER_10_239
*186 FILLER_10_24
*187 FILLER_10_242
*188 FILLER_10_245
*189 FILLER_10_248
*190 FILLER_10_251
*191 FILLER_10_253
*192 FILLER_10_256
*193 FILLER_10_259
*194 FILLER_10_262
*195 FILLER_10_265
*196 FILLER_10_268
*197 FILLER_10_27
*198 FILLER_10_271
*199 FILLER_10_274
*200 FILLER_10_277
*201 FILLER_10_280
*202 FILLER_10_283
*203 FILLER_10_286
*204 FILLER_10_289
*205 FILLER_10_29
*206 FILLER_10_292
*207 FILLER_10_295
*208 FILLER_10_298
*209 FILLER_10_3
*210 FILLER_10_301
*211 FILLER_10_304
*212 FILLER_10_307
*213 FILLER_10_309
*214 FILLER_10_312
*215 FILLER_10_315
*216 FILLER_10_318
*217 FILLER_10_32
*218 FILLER_10_321
*219 FILLER_10_324
*220 FILLER_10_327
*221 FILLER_10_330
*222 FILLER_10_35
*223 FILLER_10_38
*224 FILLER_10_41
*225 FILLER_10_44
*226 FILLER_10_47
*227 FILLER_10_50
*228 FILLER_10_53
*229 FILLER_10_56
*230 FILLER_10_59
*231 FILLER_10_6
*232 FILLER_10_62
*233 FILLER_10_65
*234 FILLER_10_68
*235 FILLER_10_71
*236 FILLER_10_74
*237 FILLER_10_77
*238 FILLER_10_80
*239 FILLER_10_83
*240 FILLER_10_85
*241 FILLER_10_88
*242 FILLER_10_9
*243 FILLER_10_91
*244 FILLER_10_94
*245 FILLER_10_97
*246 FILLER_11_102
*247 FILLER_11_105
*248 FILLER_11_108
*249 FILLER_11_111
*250 FILLER_11_113
*251 FILLER_11_116
*252 FILLER_11_119
*253 FILLER_11_12
*254 FILLER_11_122
*255 FILLER_11_125
*256 FILLER_11_128
*257 FILLER_11_131
*258 FILLER_11_134
*259 FILLER_11_137
*260 FILLER_11_140
*261 FILLER_11_143
*262 FILLER_11_146
*263 FILLER_11_149
*264 FILLER_11_15
*265 FILLER_11_152
*266 FILLER_11_155
*267 FILLER_11_163
*268 FILLER_11_166
*269 FILLER_11_169
*270 FILLER_11_172
*271 FILLER_11_175
*272 FILLER_11_178
*273 FILLER_11_18
*274 FILLER_11_181
*275 FILLER_11_184
*276 FILLER_11_187
*277 FILLER_11_190
*278 FILLER_11_193
*279 FILLER_11_196
*280 FILLER_11_199
*281 FILLER_11_202
*282 FILLER_11_205
*283 FILLER_11_208
*284 FILLER_11_21
*285 FILLER_11_211
*286 FILLER_11_214
*287 FILLER_11_217
*288 FILLER_11_220
*289 FILLER_11_223
*290 FILLER_11_225
*291 FILLER_11_228
*292 FILLER_11_231
*293 FILLER_11_234
*294 FILLER_11_237
*295 FILLER_11_24
*296 FILLER_11_240
*297 FILLER_11_243
*298 FILLER_11_246
*299 FILLER_11_249
*300 FILLER_11_252
*301 FILLER_11_255
*302 FILLER_11_258
*303 FILLER_11_261
*304 FILLER_11_264
*305 FILLER_11_267
*306 FILLER_11_27
*307 FILLER_11_270
*308 FILLER_11_273
*309 FILLER_11_276
*310 FILLER_11_279
*311 FILLER_11_281
*312 FILLER_11_284
*313 FILLER_11_287
*314 FILLER_11_290
*315 FILLER_11_293
*316 FILLER_11_296
*317 FILLER_11_299
*318 FILLER_11_3
*319 FILLER_11_30
*320 FILLER_11_302
*321 FILLER_11_305
*322 FILLER_11_308
*323 FILLER_11_311
*324 FILLER_11_314
*325 FILLER_11_317
*326 FILLER_11_320
*327 FILLER_11_323
*328 FILLER_11_326
*329 FILLER_11_329
*330 FILLER_11_33
*331 FILLER_11_36
*332 FILLER_11_39
*333 FILLER_11_42
*334 FILLER_11_45
*335 FILLER_11_48
*336 FILLER_11_51
*337 FILLER_11_54
*338 FILLER_11_57
*339 FILLER_11_6
*340 FILLER_11_60
*341 FILLER_11_63
*342 FILLER_11_66
*343 FILLER_11_69
*344 FILLER_11_72
*345 FILLER_11_75
*346 FILLER_11_78
*347 FILLER_11_81
*348 FILLER_11_84
*349 FILLER_11_87
*350 FILLER_11_9
*351 FILLER_11_90
*352 FILLER_11_93
*353 FILLER_11_96
*354 FILLER_11_99
*355 FILLER_12_100
*356 FILLER_12_103
*357 FILLER_12_106
*358 FILLER_12_109
*359 FILLER_12_112
*360 FILLER_12_115
*361 FILLER_12_118
*362 FILLER_12_12
*363 FILLER_12_121
*364 FILLER_12_124
*365 FILLER_12_127
*366 FILLER_12_130
*367 FILLER_12_133
*368 FILLER_12_136
*369 FILLER_12_139
*370 FILLER_12_141
*371 FILLER_12_144
*372 FILLER_12_147
*373 FILLER_12_15
*374 FILLER_12_150
*375 FILLER_12_153
*376 FILLER_12_156
*377 FILLER_12_177
*378 FILLER_12_18
*379 FILLER_12_180
*380 FILLER_12_183
*381 FILLER_12_186
*382 FILLER_12_189
*383 FILLER_12_192
*384 FILLER_12_195
*385 FILLER_12_197
*386 FILLER_12_200
*387 FILLER_12_203
*388 FILLER_12_206
*389 FILLER_12_209
*390 FILLER_12_21
*391 FILLER_12_212
*392 FILLER_12_215
*393 FILLER_12_218
*394 FILLER_12_221
*395 FILLER_12_224
*396 FILLER_12_227
*397 FILLER_12_230
*398 FILLER_12_233
*399 FILLER_12_236
*400 FILLER_12_239
*401 FILLER_12_24
*402 FILLER_12_242
*403 FILLER_12_245
*404 FILLER_12_248
*405 FILLER_12_251
*406 FILLER_12_253
*407 FILLER_12_256
*408 FILLER_12_259
*409 FILLER_12_262
*410 FILLER_12_265
*411 FILLER_12_268
*412 FILLER_12_27
*413 FILLER_12_271
*414 FILLER_12_274
*415 FILLER_12_277
*416 FILLER_12_280
*417 FILLER_12_283
*418 FILLER_12_286
*419 FILLER_12_289
*420 FILLER_12_29
*421 FILLER_12_292
*422 FILLER_12_295
*423 FILLER_12_298
*424 FILLER_12_3
*425 FILLER_12_301
*426 FILLER_12_304
*427 FILLER_12_307
*428 FILLER_12_309
*429 FILLER_12_312
*430 FILLER_12_315
*431 FILLER_12_318
*432 FILLER_12_32
*433 FILLER_12_321
*434 FILLER_12_324
*435 FILLER_12_327
*436 FILLER_12_330
*437 FILLER_12_35
*438 FILLER_12_38
*439 FILLER_12_41
*440 FILLER_12_44
*441 FILLER_12_47
*442 FILLER_12_50
*443 FILLER_12_53
*444 FILLER_12_56
*445 FILLER_12_59
*446 FILLER_12_6
*447 FILLER_12_62
*448 FILLER_12_65
*449 FILLER_12_68
*450 FILLER_12_71
*451 FILLER_12_74
*452 FILLER_12_77
*453 FILLER_12_80
*454 FILLER_12_83
*455 FILLER_12_85
*456 FILLER_12_88
*457 FILLER_12_9
*458 FILLER_12_91
*459 FILLER_12_94
*460 FILLER_12_97
*461 FILLER_13_102
*462 FILLER_13_105
*463 FILLER_13_108
*464 FILLER_13_111
*465 FILLER_13_113
*466 FILLER_13_116
*467 FILLER_13_119
*468 FILLER_13_12
*469 FILLER_13_122
*470 FILLER_13_125
*471 FILLER_13_128
*472 FILLER_13_131
*473 FILLER_13_134
*474 FILLER_13_137
*475 FILLER_13_140
*476 FILLER_13_143
*477 FILLER_13_146
*478 FILLER_13_149
*479 FILLER_13_15
*480 FILLER_13_152
*481 FILLER_13_155
*482 FILLER_13_158
*483 FILLER_13_161
*484 FILLER_13_164
*485 FILLER_13_167
*486 FILLER_13_169
*487 FILLER_13_172
*488 FILLER_13_175
*489 FILLER_13_178
*490 FILLER_13_18
*491 FILLER_13_181
*492 FILLER_13_184
*493 FILLER_13_187
*494 FILLER_13_190
*495 FILLER_13_193
*496 FILLER_13_196
*497 FILLER_13_199
*498 FILLER_13_202
*499 FILLER_13_205
*500 FILLER_13_208
*501 FILLER_13_21
*502 FILLER_13_211
*503 FILLER_13_214
*504 FILLER_13_217
*505 FILLER_13_220
*506 FILLER_13_223
*507 FILLER_13_225
*508 FILLER_13_228
*509 FILLER_13_231
*510 FILLER_13_234
*511 FILLER_13_237
*512 FILLER_13_24
*513 FILLER_13_240
*514 FILLER_13_243
*515 FILLER_13_246
*516 FILLER_13_249
*517 FILLER_13_252
*518 FILLER_13_255
*519 FILLER_13_258
*520 FILLER_13_261
*521 FILLER_13_264
*522 FILLER_13_267
*523 FILLER_13_27
*524 FILLER_13_270
*525 FILLER_13_273
*526 FILLER_13_276
*527 FILLER_13_279
*528 FILLER_13_281
*529 FILLER_13_284
*530 FILLER_13_287
*531 FILLER_13_290
*532 FILLER_13_293
*533 FILLER_13_296
*534 FILLER_13_299
*535 FILLER_13_3
*536 FILLER_13_30
*537 FILLER_13_302
*538 FILLER_13_305
*539 FILLER_13_308
*540 FILLER_13_311
*541 FILLER_13_314
*542 FILLER_13_317
*543 FILLER_13_320
*544 FILLER_13_323
*545 FILLER_13_326
*546 FILLER_13_329
*547 FILLER_13_33
*548 FILLER_13_36
*549 FILLER_13_39
*550 FILLER_13_42
*551 FILLER_13_45
*552 FILLER_13_48
*553 FILLER_13_51
*554 FILLER_13_54
*555 FILLER_13_57
*556 FILLER_13_6
*557 FILLER_13_60
*558 FILLER_13_63
*559 FILLER_13_66
*560 FILLER_13_69
*561 FILLER_13_72
*562 FILLER_13_75
*563 FILLER_13_78
*564 FILLER_13_81
*565 FILLER_13_84
*566 FILLER_13_87
*567 FILLER_13_9
*568 FILLER_13_90
*569 FILLER_13_93
*570 FILLER_13_96
*571 FILLER_13_99
*572 FILLER_14_100
*573 FILLER_14_103
*574 FILLER_14_106
*575 FILLER_14_109
*576 FILLER_14_112
*577 FILLER_14_115
*578 FILLER_14_118
*579 FILLER_14_12
*580 FILLER_14_121
*581 FILLER_14_124
*582 FILLER_14_127
*583 FILLER_14_130
*584 FILLER_14_133
*585 FILLER_14_136
*586 FILLER_14_139
*587 FILLER_14_141
*588 FILLER_14_144
*589 FILLER_14_147
*590 FILLER_14_15
*591 FILLER_14_150
*592 FILLER_14_153
*593 FILLER_14_156
*594 FILLER_14_159
*595 FILLER_14_162
*596 FILLER_14_165
*597 FILLER_14_168
*598 FILLER_14_171
*599 FILLER_14_174
*600 FILLER_14_177
*601 FILLER_14_18
*602 FILLER_14_180
*603 FILLER_14_183
*604 FILLER_14_186
*605 FILLER_14_189
*606 FILLER_14_192
*607 FILLER_14_195
*608 FILLER_14_197
*609 FILLER_14_200
*610 FILLER_14_203
*611 FILLER_14_206
*612 FILLER_14_209
*613 FILLER_14_21
*614 FILLER_14_212
*615 FILLER_14_215
*616 FILLER_14_218
*617 FILLER_14_221
*618 FILLER_14_224
*619 FILLER_14_227
*620 FILLER_14_230
*621 FILLER_14_233
*622 FILLER_14_236
*623 FILLER_14_239
*624 FILLER_14_24
*625 FILLER_14_242
*626 FILLER_14_245
*627 FILLER_14_248
*628 FILLER_14_251
*629 FILLER_14_253
*630 FILLER_14_256
*631 FILLER_14_259
*632 FILLER_14_262
*633 FILLER_14_265
*634 FILLER_14_268
*635 FILLER_14_27
*636 FILLER_14_271
*637 FILLER_14_274
*638 FILLER_14_277
*639 FILLER_14_280
*640 FILLER_14_283
*641 FILLER_14_286
*642 FILLER_14_289
*643 FILLER_14_29
*644 FILLER_14_292
*645 FILLER_14_295
*646 FILLER_14_298
*647 FILLER_14_3
*648 FILLER_14_301
*649 FILLER_14_304
*650 FILLER_14_307
*651 FILLER_14_309
*652 FILLER_14_312
*653 FILLER_14_315
*654 FILLER_14_318
*655 FILLER_14_32
*656 FILLER_14_321
*657 FILLER_14_324
*658 FILLER_14_327
*659 FILLER_14_330
*660 FILLER_14_35
*661 FILLER_14_38
*662 FILLER_14_41
*663 FILLER_14_44
*664 FILLER_14_47
*665 FILLER_14_50
*666 FILLER_14_53
*667 FILLER_14_56
*668 FILLER_14_59
*669 FILLER_14_6
*670 FILLER_14_62
*671 FILLER_14_65
*672 FILLER_14_68
*673 FILLER_14_71
*674 FILLER_14_74
*675 FILLER_14_77
*676 FILLER_14_80
*677 FILLER_14_83
*678 FILLER_14_85
*679 FILLER_14_88
*680 FILLER_14_9
*681 FILLER_14_91
*682 FILLER_14_94
*683 FILLER_14_97
*684 FILLER_15_102
*685 FILLER_15_105
*686 FILLER_15_108
*687 FILLER_15_111
*688 FILLER_15_113
*689 FILLER_15_116
*690 FILLER_15_119
*691 FILLER_15_12
*692 FILLER_15_122
*693 FILLER_15_125
*694 FILLER_15_128
*695 FILLER_15_131
*696 FILLER_15_134
*697 FILLER_15_137
*698 FILLER_15_140
*699 FILLER_15_143
*700 FILLER_15_146
*701 FILLER_15_149
*702 FILLER_15_15
*703 FILLER_15_152
*704 FILLER_15_155
*705 FILLER_15_158
*706 FILLER_15_161
*707 FILLER_15_164
*708 FILLER_15_167
*709 FILLER_15_169
*710 FILLER_15_172
*711 FILLER_15_175
*712 FILLER_15_178
*713 FILLER_15_18
*714 FILLER_15_181
*715 FILLER_15_184
*716 FILLER_15_187
*717 FILLER_15_190
*718 FILLER_15_193
*719 FILLER_15_196
*720 FILLER_15_199
*721 FILLER_15_202
*722 FILLER_15_205
*723 FILLER_15_208
*724 FILLER_15_21
*725 FILLER_15_211
*726 FILLER_15_214
*727 FILLER_15_217
*728 FILLER_15_220
*729 FILLER_15_223
*730 FILLER_15_225
*731 FILLER_15_228
*732 FILLER_15_231
*733 FILLER_15_234
*734 FILLER_15_237
*735 FILLER_15_24
*736 FILLER_15_240
*737 FILLER_15_243
*738 FILLER_15_246
*739 FILLER_15_249
*740 FILLER_15_252
*741 FILLER_15_255
*742 FILLER_15_258
*743 FILLER_15_261
*744 FILLER_15_264
*745 FILLER_15_267
*746 FILLER_15_27
*747 FILLER_15_270
*748 FILLER_15_273
*749 FILLER_15_276
*750 FILLER_15_279
*751 FILLER_15_281
*752 FILLER_15_284
*753 FILLER_15_287
*754 FILLER_15_290
*755 FILLER_15_293
*756 FILLER_15_296
*757 FILLER_15_299
*758 FILLER_15_3
*759 FILLER_15_30
*760 FILLER_15_302
*761 FILLER_15_305
*762 FILLER_15_308
*763 FILLER_15_311
*764 FILLER_15_314
*765 FILLER_15_317
*766 FILLER_15_320
*767 FILLER_15_323
*768 FILLER_15_326
*769 FILLER_15_329
*770 FILLER_15_33
*771 FILLER_15_36
*772 FILLER_15_39
*773 FILLER_15_42
*774 FILLER_15_45
*775 FILLER_15_48
*776 FILLER_15_51
*777 FILLER_15_54
*778 FILLER_15_57
*779 FILLER_15_6
*780 FILLER_15_60
*781 FILLER_15_63
*782 FILLER_15_66
*783 FILLER_15_69
*784 FILLER_15_72
*785 FILLER_15_75
*786 FILLER_15_78
*787 FILLER_15_81
*788 FILLER_15_84
*789 FILLER_15_87
*790 FILLER_15_9
*791 FILLER_15_90
*792 FILLER_15_93
*793 FILLER_15_96
*794 FILLER_15_99
*795 FILLER_16_100
*796 FILLER_16_103
*797 FILLER_16_106
*798 FILLER_16_109
*799 FILLER_16_112
*800 FILLER_16_115
*801 FILLER_16_118
*802 FILLER_16_12
*803 FILLER_16_121
*804 FILLER_16_124
*805 FILLER_16_127
*806 FILLER_16_130
*807 FILLER_16_133
*808 FILLER_16_136
*809 FILLER_16_139
*810 FILLER_16_141
*811 FILLER_16_144
*812 FILLER_16_147
*813 FILLER_16_15
*814 FILLER_16_150
*815 FILLER_16_153
*816 FILLER_16_176
*817 FILLER_16_179
*818 FILLER_16_18
*819 FILLER_16_182
*820 FILLER_16_185
*821 FILLER_16_188
*822 FILLER_16_191
*823 FILLER_16_194
*824 FILLER_16_197
*825 FILLER_16_200
*826 FILLER_16_203
*827 FILLER_16_206
*828 FILLER_16_209
*829 FILLER_16_21
*830 FILLER_16_212
*831 FILLER_16_215
*832 FILLER_16_218
*833 FILLER_16_221
*834 FILLER_16_224
*835 FILLER_16_227
*836 FILLER_16_230
*837 FILLER_16_233
*838 FILLER_16_236
*839 FILLER_16_239
*840 FILLER_16_24
*841 FILLER_16_242
*842 FILLER_16_245
*843 FILLER_16_248
*844 FILLER_16_251
*845 FILLER_16_253
*846 FILLER_16_256
*847 FILLER_16_259
*848 FILLER_16_262
*849 FILLER_16_265
*850 FILLER_16_268
*851 FILLER_16_27
*852 FILLER_16_271
*853 FILLER_16_274
*854 FILLER_16_277
*855 FILLER_16_280
*856 FILLER_16_283
*857 FILLER_16_286
*858 FILLER_16_289
*859 FILLER_16_29
*860 FILLER_16_292
*861 FILLER_16_295
*862 FILLER_16_298
*863 FILLER_16_3
*864 FILLER_16_301
*865 FILLER_16_304
*866 FILLER_16_307
*867 FILLER_16_309
*868 FILLER_16_312
*869 FILLER_16_315
*870 FILLER_16_318
*871 FILLER_16_32
*872 FILLER_16_321
*873 FILLER_16_324
*874 FILLER_16_327
*875 FILLER_16_330
*876 FILLER_16_35
*877 FILLER_16_38
*878 FILLER_16_41
*879 FILLER_16_44
*880 FILLER_16_47
*881 FILLER_16_50
*882 FILLER_16_53
*883 FILLER_16_56
*884 FILLER_16_59
*885 FILLER_16_6
*886 FILLER_16_62
*887 FILLER_16_65
*888 FILLER_16_68
*889 FILLER_16_71
*890 FILLER_16_74
*891 FILLER_16_77
*892 FILLER_16_80
*893 FILLER_16_83
*894 FILLER_16_85
*895 FILLER_16_88
*896 FILLER_16_9
*897 FILLER_16_91
*898 FILLER_16_94
*899 FILLER_16_97
*900 FILLER_17_102
*901 FILLER_17_105
*902 FILLER_17_108
*903 FILLER_17_111
*904 FILLER_17_113
*905 FILLER_17_116
*906 FILLER_17_119
*907 FILLER_17_12
*908 FILLER_17_122
*909 FILLER_17_125
*910 FILLER_17_128
*911 FILLER_17_131
*912 FILLER_17_134
*913 FILLER_17_137
*914 FILLER_17_140
*915 FILLER_17_143
*916 FILLER_17_146
*917 FILLER_17_149
*918 FILLER_17_15
*919 FILLER_17_152
*920 FILLER_17_155
*921 FILLER_17_158
*922 FILLER_17_161
*923 FILLER_17_164
*924 FILLER_17_167
*925 FILLER_17_169
*926 FILLER_17_172
*927 FILLER_17_175
*928 FILLER_17_178
*929 FILLER_17_18
*930 FILLER_17_181
*931 FILLER_17_184
*932 FILLER_17_187
*933 FILLER_17_190
*934 FILLER_17_193
*935 FILLER_17_196
*936 FILLER_17_199
*937 FILLER_17_202
*938 FILLER_17_205
*939 FILLER_17_208
*940 FILLER_17_21
*941 FILLER_17_211
*942 FILLER_17_214
*943 FILLER_17_217
*944 FILLER_17_220
*945 FILLER_17_223
*946 FILLER_17_225
*947 FILLER_17_228
*948 FILLER_17_231
*949 FILLER_17_234
*950 FILLER_17_237
*951 FILLER_17_24
*952 FILLER_17_240
*953 FILLER_17_243
*954 FILLER_17_246
*955 FILLER_17_249
*956 FILLER_17_252
*957 FILLER_17_255
*958 FILLER_17_258
*959 FILLER_17_261
*960 FILLER_17_264
*961 FILLER_17_267
*962 FILLER_17_27
*963 FILLER_17_270
*964 FILLER_17_273
*965 FILLER_17_276
*966 FILLER_17_279
*967 FILLER_17_281
*968 FILLER_17_284
*969 FILLER_17_287
*970 FILLER_17_290
*971 FILLER_17_293
*972 FILLER_17_296
*973 FILLER_17_299
*974 FILLER_17_3
*975 FILLER_17_30
*976 FILLER_17_302
*977 FILLER_17_305
*978 FILLER_17_308
*979 FILLER_17_311
*980 FILLER_17_314
*981 FILLER_17_317
*982 FILLER_17_320
*983 FILLER_17_323
*984 FILLER_17_326
*985 FILLER_17_329
*986 FILLER_17_33
*987 FILLER_17_36
*988 FILLER_17_39
*989 FILLER_17_42
*990 FILLER_17_45
*991 FILLER_17_48
*992 FILLER_17_51
*993 FILLER_17_54
*994 FILLER_17_57
*995 FILLER_17_6
*996 FILLER_17_60
*997 FILLER_17_63
*998 FILLER_17_66
*999 FILLER_17_69
*1000 FILLER_17_72
*1001 FILLER_17_75
*1002 FILLER_17_78
*1003 FILLER_17_81
*1004 FILLER_17_84
*1005 FILLER_17_87
*1006 FILLER_17_9
*1007 FILLER_17_90
*1008 FILLER_17_93
*1009 FILLER_17_96
*1010 FILLER_17_99
*1011 FILLER_18_100
*1012 FILLER_18_103
*1013 FILLER_18_106
*1014 FILLER_18_109
*1015 FILLER_18_112
*1016 FILLER_18_115
*1017 FILLER_18_118
*1018 FILLER_18_12
*1019 FILLER_18_121
*1020 FILLER_18_124
*1021 FILLER_18_127
*1022 FILLER_18_130
*1023 FILLER_18_133
*1024 FILLER_18_136
*1025 FILLER_18_139
*1026 FILLER_18_141
*1027 FILLER_18_144
*1028 FILLER_18_147
*1029 FILLER_18_15
*1030 FILLER_18_150
*1031 FILLER_18_153
*1032 FILLER_18_156
*1033 FILLER_18_159
*1034 FILLER_18_162
*1035 FILLER_18_165
*1036 FILLER_18_168
*1037 FILLER_18_171
*1038 FILLER_18_174
*1039 FILLER_18_177
*1040 FILLER_18_18
*1041 FILLER_18_180
*1042 FILLER_18_183
*1043 FILLER_18_186
*1044 FILLER_18_189
*1045 FILLER_18_192
*1046 FILLER_18_195
*1047 FILLER_18_197
*1048 FILLER_18_200
*1049 FILLER_18_203
*1050 FILLER_18_206
*1051 FILLER_18_209
*1052 FILLER_18_21
*1053 FILLER_18_212
*1054 FILLER_18_215
*1055 FILLER_18_218
*1056 FILLER_18_221
*1057 FILLER_18_224
*1058 FILLER_18_227
*1059 FILLER_18_230
*1060 FILLER_18_233
*1061 FILLER_18_236
*1062 FILLER_18_239
*1063 FILLER_18_24
*1064 FILLER_18_242
*1065 FILLER_18_245
*1066 FILLER_18_248
*1067 FILLER_18_251
*1068 FILLER_18_253
*1069 FILLER_18_256
*1070 FILLER_18_259
*1071 FILLER_18_262
*1072 FILLER_18_265
*1073 FILLER_18_268
*1074 FILLER_18_27
*1075 FILLER_18_271
*1076 FILLER_18_274
*1077 FILLER_18_277
*1078 FILLER_18_280
*1079 FILLER_18_283
*1080 FILLER_18_286
*1081 FILLER_18_289
*1082 FILLER_18_29
*1083 FILLER_18_292
*1084 FILLER_18_295
*1085 FILLER_18_298
*1086 FILLER_18_3
*1087 FILLER_18_301
*1088 FILLER_18_304
*1089 FILLER_18_307
*1090 FILLER_18_309
*1091 FILLER_18_312
*1092 FILLER_18_315
*1093 FILLER_18_318
*1094 FILLER_18_32
*1095 FILLER_18_321
*1096 FILLER_18_324
*1097 FILLER_18_327
*1098 FILLER_18_330
*1099 FILLER_18_35
*1100 FILLER_18_38
*1101 FILLER_18_41
*1102 FILLER_18_44
*1103 FILLER_18_47
*1104 FILLER_18_50
*1105 FILLER_18_53
*1106 FILLER_18_56
*1107 FILLER_18_59
*1108 FILLER_18_6
*1109 FILLER_18_62
*1110 FILLER_18_65
*1111 FILLER_18_68
*1112 FILLER_18_71
*1113 FILLER_18_74
*1114 FILLER_18_77
*1115 FILLER_18_80
*1116 FILLER_18_83
*1117 FILLER_18_85
*1118 FILLER_18_88
*1119 FILLER_18_9
*1120 FILLER_18_91
*1121 FILLER_18_94
*1122 FILLER_18_97
*1123 FILLER_19_102
*1124 FILLER_19_105
*1125 FILLER_19_108
*1126 FILLER_19_111
*1127 FILLER_19_113
*1128 FILLER_19_116
*1129 FILLER_19_119
*1130 FILLER_19_12
*1131 FILLER_19_122
*1132 FILLER_19_125
*1133 FILLER_19_128
*1134 FILLER_19_131
*1135 FILLER_19_134
*1136 FILLER_19_137
*1137 FILLER_19_140
*1138 FILLER_19_143
*1139 FILLER_19_146
*1140 FILLER_19_149
*1141 FILLER_19_15
*1142 FILLER_19_152
*1143 FILLER_19_155
*1144 FILLER_19_158
*1145 FILLER_19_161
*1146 FILLER_19_164
*1147 FILLER_19_167
*1148 FILLER_19_169
*1149 FILLER_19_172
*1150 FILLER_19_175
*1151 FILLER_19_178
*1152 FILLER_19_18
*1153 FILLER_19_181
*1154 FILLER_19_184
*1155 FILLER_19_187
*1156 FILLER_19_190
*1157 FILLER_19_193
*1158 FILLER_19_196
*1159 FILLER_19_199
*1160 FILLER_19_202
*1161 FILLER_19_205
*1162 FILLER_19_208
*1163 FILLER_19_21
*1164 FILLER_19_211
*1165 FILLER_19_214
*1166 FILLER_19_217
*1167 FILLER_19_220
*1168 FILLER_19_223
*1169 FILLER_19_225
*1170 FILLER_19_228
*1171 FILLER_19_231
*1172 FILLER_19_234
*1173 FILLER_19_237
*1174 FILLER_19_24
*1175 FILLER_19_240
*1176 FILLER_19_243
*1177 FILLER_19_246
*1178 FILLER_19_249
*1179 FILLER_19_252
*1180 FILLER_19_255
*1181 FILLER_19_258
*1182 FILLER_19_261
*1183 FILLER_19_264
*1184 FILLER_19_267
*1185 FILLER_19_27
*1186 FILLER_19_270
*1187 FILLER_19_273
*1188 FILLER_19_276
*1189 FILLER_19_279
*1190 FILLER_19_281
*1191 FILLER_19_284
*1192 FILLER_19_287
*1193 FILLER_19_290
*1194 FILLER_19_293
*1195 FILLER_19_296
*1196 FILLER_19_299
*1197 FILLER_19_3
*1198 FILLER_19_30
*1199 FILLER_19_302
*1200 FILLER_19_305
*1201 FILLER_19_308
*1202 FILLER_19_311
*1203 FILLER_19_314
*1204 FILLER_19_317
*1205 FILLER_19_320
*1206 FILLER_19_323
*1207 FILLER_19_326
*1208 FILLER_19_329
*1209 FILLER_19_33
*1210 FILLER_19_36
*1211 FILLER_19_39
*1212 FILLER_19_42
*1213 FILLER_19_45
*1214 FILLER_19_48
*1215 FILLER_19_51
*1216 FILLER_19_54
*1217 FILLER_19_57
*1218 FILLER_19_6
*1219 FILLER_19_60
*1220 FILLER_19_63
*1221 FILLER_19_66
*1222 FILLER_19_69
*1223 FILLER_19_72
*1224 FILLER_19_75
*1225 FILLER_19_78
*1226 FILLER_19_81
*1227 FILLER_19_84
*1228 FILLER_19_87
*1229 FILLER_19_9
*1230 FILLER_19_90
*1231 FILLER_19_93
*1232 FILLER_19_96
*1233 FILLER_19_99
*1234 FILLER_1_102
*1235 FILLER_1_105
*1236 FILLER_1_108
*1237 FILLER_1_111
*1238 FILLER_1_113
*1239 FILLER_1_116
*1240 FILLER_1_119
*1241 FILLER_1_12
*1242 FILLER_1_122
*1243 FILLER_1_125
*1244 FILLER_1_128
*1245 FILLER_1_131
*1246 FILLER_1_134
*1247 FILLER_1_137
*1248 FILLER_1_140
*1249 FILLER_1_143
*1250 FILLER_1_146
*1251 FILLER_1_15
*1252 FILLER_1_167
*1253 FILLER_1_18
*1254 FILLER_1_193
*1255 FILLER_1_196
*1256 FILLER_1_199
*1257 FILLER_1_202
*1258 FILLER_1_205
*1259 FILLER_1_208
*1260 FILLER_1_21
*1261 FILLER_1_211
*1262 FILLER_1_214
*1263 FILLER_1_217
*1264 FILLER_1_220
*1265 FILLER_1_223
*1266 FILLER_1_225
*1267 FILLER_1_228
*1268 FILLER_1_231
*1269 FILLER_1_234
*1270 FILLER_1_237
*1271 FILLER_1_24
*1272 FILLER_1_240
*1273 FILLER_1_243
*1274 FILLER_1_246
*1275 FILLER_1_249
*1276 FILLER_1_252
*1277 FILLER_1_255
*1278 FILLER_1_258
*1279 FILLER_1_261
*1280 FILLER_1_264
*1281 FILLER_1_267
*1282 FILLER_1_27
*1283 FILLER_1_270
*1284 FILLER_1_273
*1285 FILLER_1_276
*1286 FILLER_1_279
*1287 FILLER_1_281
*1288 FILLER_1_284
*1289 FILLER_1_287
*1290 FILLER_1_290
*1291 FILLER_1_293
*1292 FILLER_1_296
*1293 FILLER_1_299
*1294 FILLER_1_3
*1295 FILLER_1_30
*1296 FILLER_1_302
*1297 FILLER_1_305
*1298 FILLER_1_308
*1299 FILLER_1_311
*1300 FILLER_1_314
*1301 FILLER_1_317
*1302 FILLER_1_320
*1303 FILLER_1_323
*1304 FILLER_1_326
*1305 FILLER_1_329
*1306 FILLER_1_33
*1307 FILLER_1_36
*1308 FILLER_1_39
*1309 FILLER_1_42
*1310 FILLER_1_45
*1311 FILLER_1_48
*1312 FILLER_1_51
*1313 FILLER_1_54
*1314 FILLER_1_57
*1315 FILLER_1_6
*1316 FILLER_1_60
*1317 FILLER_1_63
*1318 FILLER_1_66
*1319 FILLER_1_69
*1320 FILLER_1_72
*1321 FILLER_1_75
*1322 FILLER_1_78
*1323 FILLER_1_81
*1324 FILLER_1_84
*1325 FILLER_1_87
*1326 FILLER_1_9
*1327 FILLER_1_90
*1328 FILLER_1_93
*1329 FILLER_1_96
*1330 FILLER_1_99
*1331 FILLER_20_100
*1332 FILLER_20_103
*1333 FILLER_20_106
*1334 FILLER_20_109
*1335 FILLER_20_112
*1336 FILLER_20_115
*1337 FILLER_20_118
*1338 FILLER_20_12
*1339 FILLER_20_121
*1340 FILLER_20_124
*1341 FILLER_20_127
*1342 FILLER_20_130
*1343 FILLER_20_133
*1344 FILLER_20_136
*1345 FILLER_20_139
*1346 FILLER_20_141
*1347 FILLER_20_144
*1348 FILLER_20_147
*1349 FILLER_20_15
*1350 FILLER_20_150
*1351 FILLER_20_153
*1352 FILLER_20_156
*1353 FILLER_20_159
*1354 FILLER_20_162
*1355 FILLER_20_165
*1356 FILLER_20_168
*1357 FILLER_20_171
*1358 FILLER_20_174
*1359 FILLER_20_177
*1360 FILLER_20_18
*1361 FILLER_20_180
*1362 FILLER_20_183
*1363 FILLER_20_186
*1364 FILLER_20_189
*1365 FILLER_20_192
*1366 FILLER_20_195
*1367 FILLER_20_197
*1368 FILLER_20_200
*1369 FILLER_20_203
*1370 FILLER_20_206
*1371 FILLER_20_209
*1372 FILLER_20_21
*1373 FILLER_20_212
*1374 FILLER_20_215
*1375 FILLER_20_218
*1376 FILLER_20_221
*1377 FILLER_20_224
*1378 FILLER_20_227
*1379 FILLER_20_230
*1380 FILLER_20_233
*1381 FILLER_20_236
*1382 FILLER_20_239
*1383 FILLER_20_24
*1384 FILLER_20_242
*1385 FILLER_20_245
*1386 FILLER_20_248
*1387 FILLER_20_251
*1388 FILLER_20_253
*1389 FILLER_20_256
*1390 FILLER_20_259
*1391 FILLER_20_262
*1392 FILLER_20_265
*1393 FILLER_20_268
*1394 FILLER_20_27
*1395 FILLER_20_271
*1396 FILLER_20_274
*1397 FILLER_20_277
*1398 FILLER_20_280
*1399 FILLER_20_283
*1400 FILLER_20_286
*1401 FILLER_20_289
*1402 FILLER_20_29
*1403 FILLER_20_292
*1404 FILLER_20_295
*1405 FILLER_20_298
*1406 FILLER_20_3
*1407 FILLER_20_301
*1408 FILLER_20_304
*1409 FILLER_20_307
*1410 FILLER_20_309
*1411 FILLER_20_312
*1412 FILLER_20_315
*1413 FILLER_20_318
*1414 FILLER_20_32
*1415 FILLER_20_321
*1416 FILLER_20_324
*1417 FILLER_20_327
*1418 FILLER_20_330
*1419 FILLER_20_35
*1420 FILLER_20_38
*1421 FILLER_20_41
*1422 FILLER_20_44
*1423 FILLER_20_47
*1424 FILLER_20_50
*1425 FILLER_20_53
*1426 FILLER_20_56
*1427 FILLER_20_59
*1428 FILLER_20_6
*1429 FILLER_20_62
*1430 FILLER_20_65
*1431 FILLER_20_68
*1432 FILLER_20_71
*1433 FILLER_20_74
*1434 FILLER_20_77
*1435 FILLER_20_80
*1436 FILLER_20_83
*1437 FILLER_20_85
*1438 FILLER_20_88
*1439 FILLER_20_9
*1440 FILLER_20_91
*1441 FILLER_20_94
*1442 FILLER_20_97
*1443 FILLER_21_102
*1444 FILLER_21_105
*1445 FILLER_21_108
*1446 FILLER_21_111
*1447 FILLER_21_113
*1448 FILLER_21_116
*1449 FILLER_21_119
*1450 FILLER_21_12
*1451 FILLER_21_122
*1452 FILLER_21_125
*1453 FILLER_21_128
*1454 FILLER_21_131
*1455 FILLER_21_134
*1456 FILLER_21_137
*1457 FILLER_21_140
*1458 FILLER_21_143
*1459 FILLER_21_146
*1460 FILLER_21_149
*1461 FILLER_21_15
*1462 FILLER_21_152
*1463 FILLER_21_155
*1464 FILLER_21_158
*1465 FILLER_21_161
*1466 FILLER_21_164
*1467 FILLER_21_167
*1468 FILLER_21_169
*1469 FILLER_21_172
*1470 FILLER_21_175
*1471 FILLER_21_178
*1472 FILLER_21_18
*1473 FILLER_21_181
*1474 FILLER_21_184
*1475 FILLER_21_187
*1476 FILLER_21_190
*1477 FILLER_21_193
*1478 FILLER_21_196
*1479 FILLER_21_199
*1480 FILLER_21_202
*1481 FILLER_21_205
*1482 FILLER_21_208
*1483 FILLER_21_21
*1484 FILLER_21_211
*1485 FILLER_21_214
*1486 FILLER_21_217
*1487 FILLER_21_220
*1488 FILLER_21_223
*1489 FILLER_21_225
*1490 FILLER_21_228
*1491 FILLER_21_231
*1492 FILLER_21_234
*1493 FILLER_21_237
*1494 FILLER_21_24
*1495 FILLER_21_240
*1496 FILLER_21_243
*1497 FILLER_21_246
*1498 FILLER_21_249
*1499 FILLER_21_252
*1500 FILLER_21_255
*1501 FILLER_21_258
*1502 FILLER_21_261
*1503 FILLER_21_264
*1504 FILLER_21_267
*1505 FILLER_21_27
*1506 FILLER_21_270
*1507 FILLER_21_273
*1508 FILLER_21_276
*1509 FILLER_21_279
*1510 FILLER_21_281
*1511 FILLER_21_284
*1512 FILLER_21_287
*1513 FILLER_21_290
*1514 FILLER_21_293
*1515 FILLER_21_296
*1516 FILLER_21_299
*1517 FILLER_21_3
*1518 FILLER_21_30
*1519 FILLER_21_302
*1520 FILLER_21_305
*1521 FILLER_21_308
*1522 FILLER_21_311
*1523 FILLER_21_314
*1524 FILLER_21_317
*1525 FILLER_21_320
*1526 FILLER_21_323
*1527 FILLER_21_326
*1528 FILLER_21_329
*1529 FILLER_21_33
*1530 FILLER_21_36
*1531 FILLER_21_39
*1532 FILLER_21_42
*1533 FILLER_21_45
*1534 FILLER_21_48
*1535 FILLER_21_51
*1536 FILLER_21_54
*1537 FILLER_21_57
*1538 FILLER_21_6
*1539 FILLER_21_60
*1540 FILLER_21_63
*1541 FILLER_21_66
*1542 FILLER_21_69
*1543 FILLER_21_72
*1544 FILLER_21_75
*1545 FILLER_21_78
*1546 FILLER_21_81
*1547 FILLER_21_84
*1548 FILLER_21_87
*1549 FILLER_21_9
*1550 FILLER_21_90
*1551 FILLER_21_93
*1552 FILLER_21_96
*1553 FILLER_21_99
*1554 FILLER_22_100
*1555 FILLER_22_103
*1556 FILLER_22_106
*1557 FILLER_22_109
*1558 FILLER_22_112
*1559 FILLER_22_115
*1560 FILLER_22_118
*1561 FILLER_22_12
*1562 FILLER_22_121
*1563 FILLER_22_124
*1564 FILLER_22_127
*1565 FILLER_22_130
*1566 FILLER_22_133
*1567 FILLER_22_136
*1568 FILLER_22_139
*1569 FILLER_22_141
*1570 FILLER_22_144
*1571 FILLER_22_147
*1572 FILLER_22_15
*1573 FILLER_22_150
*1574 FILLER_22_153
*1575 FILLER_22_176
*1576 FILLER_22_179
*1577 FILLER_22_18
*1578 FILLER_22_182
*1579 FILLER_22_185
*1580 FILLER_22_188
*1581 FILLER_22_191
*1582 FILLER_22_194
*1583 FILLER_22_197
*1584 FILLER_22_200